*NODE, NSET=GLOBAL
  1,   0.,       0.,  0.
  2,   1.,       0.,  0.
  3,   1.,    0.125,  0.
  4,   1.,     0.25,  0.
  5,   1.,    0.375,  0.
  6,   1.,      0.5,  0.
  7,   1.,    0.625,  0.
  8,   1.,     0.75,  0.
  9,   1.,    0.875,  0.
 10,   1.,       1.,  0.
 11,   1.,    1.125,  0.
 12,   1.,     1.25,  0.
 13,   1.,    1.375,  0.
 14,   1.,      1.5,  0.
 15,   1.,    1.625,  0.
 16,   1.,     1.75,  0.
 17,   1.,    1.875,  0.
 18,   1.,       2.,  0.
 19,   1.,    2.125,  0.
 20,   1.,     2.25,  0.
** ... 143 like lines cut
****************************************
****************************************	
*NSET, NSET=Gbot
1,2,67
*NSET, NSET=Gtop
34,35,162
*NSET, NSET=GtopPOR
34,35
*NSET, NSET=Gleft
1,35,36,37,38,39,40,41,42,43
44,45,46,47,48,49,50,51,52,53
54,55,56,57,58,59,60,61,62,63
64,65,66,70,73,76,79,82,85,88
91,94,97,100,103,106,109,112,115,118
121,124,127,130,133,136,139,142,145,148
151,154,157,160,163
*NSET, NSET=Gright
2,3,4,5,6,7,8,9,10,11
12,13,14,15,16,17,18,19,20,21
22,23,24,25,26,27,28,29,30,31
32,33,34,68,71,74,77,80,83,86
89,92,95,98,101,104,107,110,113,116
119,122,125,128,131,134,137,140,143,146
149,152,155,158,161
*NSET, NSET=GleftPOR
 1,66,65,64,63,62,61,60
59,58,57,56,55,54,53,52
51,50,49,48,47,46,45,44
43,42,41,40,39,38,37,36
35
****************************************
***
*** List dofs 1,2 (displacement x, y) for all nodes, 
*** then followed by dof 8 (fluid pore pressure p) 
*** for nodes 1 through 4 (stop at node 5)
***
*USER ELEMENT, TYPE=U101, NODES=8, COORDINATES=2, VARIABLES=1, PROPERTIES=6, UNSYMM
1,2
1,8
5,
****************************************
***
*** Lambda = 0.0 implies nu = 0.0
***
*PARAMETER
Lambda    = 0.0
Gmod      = 35.e6
grav      = 10.0
nporo     = 0.3
density_s = 2000.
density_w = 1000.
density   = nporo*density_w + (1.0-nporo)*density_s
***
*** applied pressure
***
sigbar  = 90.e3
***
*** saturated unit weight
***
gamma = density*grav
***
*** unit weight of water
***
gammaF = density_w*grav
***
*** hydraulic permeability (m/sec)
***
hydraulic_conductivity = 1.e-5
************************************
*UEL PROPERTY,ELSET=Pporous
<Lambda>,<Gmod>,<gamma>,<gammaF>,<hydraulic_conductivity>,<grav>
************************************
*ELEMENT, TYPE=U101, ELSET=Pporous
 1,  1,  2,  3, 66,  67,  68,  69,  70
 2, 66,  3,  4, 65,  69,  71,  72,  73
 3, 65,  4,  5, 64,  72,  74,  75,  76
 4, 64,  5,  6, 63,  75,  77,  78,  79
 5, 63,  6,  7, 62,  78,  80,  81,  82
 6, 62,  7,  8, 61,  81,  83,  84,  85
 7, 61,  8,  9, 60,  84,  86,  87,  88
 8, 60,  9, 10, 59,  87,  89,  90,  91
 9, 59, 10, 11, 58,  90,  92,  93,  94
10, 58, 11, 12, 57,  93,  95,  96,  97
11, 57, 12, 13, 56,  96,  98,  99, 100
12, 56, 13, 14, 55,  99, 101, 102, 103
13, 55, 14, 15, 54, 102, 104, 105, 106
14, 54, 15, 16, 53, 105, 107, 108, 109
15, 53, 16, 17, 52, 108, 110, 111, 112
16, 52, 17, 18, 51, 111, 113, 114, 115
17, 51, 18, 19, 50, 114, 116, 117, 118
18, 50, 19, 20, 49, 117, 119, 120, 121
19, 49, 20, 21, 48, 120, 122, 123, 124
20, 48, 21, 22, 47, 123, 125, 126, 127
** ... 12 like lines cut
************************************
*** dummy elements
*ELEMENT, TYPE=CPE8R, ELSET=Pdummy
1001,  1,  2,  3, 66,  67,  68,  69,  70
1002, 66,  3,  4, 65,  69,  71,  72,  73
1003, 65,  4,  5, 64,  72,  74,  75,  76
1004, 64,  5,  6, 63,  75,  77,  78,  79
1005, 63,  6,  7, 62,  78,  80,  81,  82
1006, 62,  7,  8, 61,  81,  83,  84,  85
1007, 61,  8,  9, 60,  84,  86,  87,  88
1008, 60,  9, 10, 59,  87,  89,  90,  91
1009, 59, 10, 11, 58,  90,  92,  93,  94
1010, 58, 11, 12, 57,  93,  95,  96,  97
1011, 57, 12, 13, 56,  96,  98,  99, 100
1012, 56, 13, 14, 55,  99, 101, 102, 103
1013, 55, 14, 15, 54, 102, 104, 105, 106
1014, 54, 15, 16, 53, 105, 107, 108, 109
1015, 53, 16, 17, 52, 108, 110, 111, 112
1016, 52, 17, 18, 51, 111, 113, 114, 115
1017, 51, 18, 19, 50, 114, 116, 117, 118
1018, 50, 19, 20, 49, 117, 119, 120, 121
1019, 49, 20, 21, 48, 120, 122, 123, 124
1020, 48, 21, 22, 47, 123, 125, 126, 127
** ... 12 like lines cut
************************************
*SOLID SECTION, ELSET=Pdummy, MATERIAL=Mdummy
1.0
************************************
*MATERIAL,NAME=Mdummy
*ELASTIC
1.e-16,0.	
************************************
*** Dummy material to force coupled procedure 
*** (not attached to any elements)
*MATERIAL,NAME=DUMMY2
*ELASTIC
1.0,
*PERMEABILITY,SPECIFIC=1.0
1.0,
************************************
** Define surface on dummy element 
** used to generate appropriate 
** nodal loads due to surface pressure
**
*SURFACE,NAME=TopSurfDummy,TYPE=ELEMENT
1032,S3
************************************
************************************
*** Gravity only
*** - for this step, set hydraulic 
***   conductivity to larger value
***   (in UEL code) to get to 
***   hydrostatic condition faster
************************************
************************************
*STEP, INC=99999, UNSYMM=YES
Gravity only
*SOILS,CONSOLIDATION
1.,200.,
***
*** fix displacement at base of column
*** zero pressure at top
***
*BOUNDARY
GtopPOR,8
Gbot,2
Gleft,1
Gright,1
************************************
*OUTPUT, FIELD, FREQ=1
*Node Output, nset=GLOBAL
 RF, U, POR
**
** HISTORY OUTPUT 
**
*Output, HISTORY, FREQ=1
*node output, nset=Gtop
U, POR
*node output, nset=Gbot
RF, POR
*END STEP
************************************
************************************
*STEP, INC=99999, UNSYMM=YES
Gravity + Load jump + Consolidate
*SOILS,CONSOLIDATION
1.,500.,
*DSLOAD
TopSurfDummy,P,90.e3
************************************
*OUTPUT, FIELD, FREQ=1
*Node Output, nset=GLOBAL
 RF, U, POR
**
** HISTORY OUTPUT
**
*Output, HISTORY, FREQ=1
*node output, nset=Gtop
U, POR
*node output, nset=Gbot
RF, POR
*END STEP