*NODE
   1,  0.,  0. 
   2,  1.,  0. 
   3,  2.,  0. 
   4,  3.,  0. 
   5,  4.,  0. 
   6,  5.,  0. 
   7,  6.,  0. 
   8,  7.,  0. 
   9,  8.,  0. 
  10,  9.,  0. 
  11, 10.,  0. 
  12, 10.,  1. 
  13, 10.,  2. 
  14, 10.,  3. 
  15, 10.,  4. 
  16, 10.,  5. 
  17, 10.,  6. 
  18, 10.,  7. 
  19, 10.,  8. 
  20, 10.,  9. 
** ... 321 like lines cut
*********************************************** 
*USER ELEMENT, TYPE=U101, NODES=8, COORDINATES=2, properties=10, variables=36, UNSYMM
1,2
1,4
5,
***********************************************
*parameter
rhoS   = 2000.
rhoF   = 1000.
nPoro  = 0.333
Gmod   = 15.e6
Nu     = 0.3
Kfluid = 1.e10
kperm  = 1.e-4
grav   = 10.
damp_alpha = 0.
damp_beta  = 0.
*******************************************************************
*UEL PROPERTY,ELSET=Porous
<Gmod>,<Nu>,<rhoS>,<rhoF>,<nPoro>,<kperm>,<Kfluid>,<grav>
<damp_alpha>,<damp_beta>
******************************************************************* 
*ELEMENT, TYPE=U101, ELSET=Porous
  1,   1,   2,  41,  40, 122, 125, 197, 123
  2,   2,   3,  42,  41, 124, 127, 198, 125
  3,   3,   4,  43,  42, 126, 129, 200, 127
  4,   4,   5,  44,  43, 128, 131, 202, 129
  5,   5,   6,  45,  44, 130, 133, 204, 131
  6,   6,   7,  46,  45, 132, 135, 206, 133
  7,   7,   8,  47,  46, 134, 137, 208, 135
  8,   8,   9,  48,  47, 136, 139, 210, 137
  9,   9,  10,  49,  48, 138, 141, 212, 139
 10,  10,  11,  12,  49, 140, 142, 144, 141
 11,  40,  41,  50,  39, 197, 199, 196, 195
 12,  41,  42,  51,  50, 198, 201, 215, 199
 13,  42,  43,  52,  51, 200, 203, 217, 201
 14,  43,  44,  53,  52, 202, 205, 219, 203
 15,  44,  45,  54,  53, 204, 207, 221, 205
 16,  45,  46,  55,  54, 206, 209, 223, 207
 17,  46,  47,  56,  55, 208, 211, 225, 209
 18,  47,  48,  57,  56, 210, 213, 227, 211
 19,  48,  49,  58,  57, 212, 214, 229, 213
 20,  49,  12,  13,  58, 144, 143, 146, 214
** ... 80 like lines cut
*******************************************************************
*ELEMENT, TYPE=CPE8R, ELSET=dummy
1001,   1,   2,  41,  40, 122, 125, 197, 123
1002,   2,   3,  42,  41, 124, 127, 198, 125
1003,   3,   4,  43,  42, 126, 129, 200, 127
1004,   4,   5,  44,  43, 128, 131, 202, 129
1005,   5,   6,  45,  44, 130, 133, 204, 131
1006,   6,   7,  46,  45, 132, 135, 206, 133
1007,   7,   8,  47,  46, 134, 137, 208, 135
1008,   8,   9,  48,  47, 136, 139, 210, 137
1009,   9,  10,  49,  48, 138, 141, 212, 139
1010,  10,  11,  12,  49, 140, 142, 144, 141
1011,  40,  41,  50,  39, 197, 199, 196, 195
1012,  41,  42,  51,  50, 198, 201, 215, 199
1013,  42,  43,  52,  51, 200, 203, 217, 201
1014,  43,  44,  53,  52, 202, 205, 219, 203
1015,  44,  45,  54,  53, 204, 207, 221, 205
1016,  45,  46,  55,  54, 206, 209, 223, 207
1017,  46,  47,  56,  55, 208, 211, 225, 209
1018,  47,  48,  57,  56, 210, 213, 227, 211
1019,  48,  49,  58,  57, 212, 214, 229, 213
1020,  49,  12,  13,  58, 144, 143, 146, 214
** ... 80 like lines cut
****************************************
*SOLID SECTION, ELSET=dummy, MATERIAL=MatDummy
1.0
*MATERIAL,NAME=MatDummy
*ELASTIC
1.e-16,0.	
*DENSITY
1.e-12
****************************************
*NSET, NSET=sides
1,11,12,13,14,15,16,17,18,19
20,21,31,32,33,34,35,36,37,38
39,40,123,142,143,145,147,149,151,153
155,157,159,180,181,183,185,187,189,191
193,195
*NSET, NSET=base
1,2,3,4,5,6,7,8,9,10
11,122,124,126,128,130,132,134,136,138
140
*NSET, NSET=top
21,22,23,24,25,26,27,28,29,30
31,161,162,164,166,168,170,172,174,176
178
*NSET, NSET=BotCorner
1
*NSET, NSET=TopCorner
31
****************************************
*INCLUDE,INPUT=amplitude_stripfooting.inp
**** 
*SURFACE,NAME=PresSurf,TYPE=ELEMENT
1091,S3
****************************************
*BOUNDARY
sides,1,1
base,2,2
top,4,4
** 
** Step 1 - Dynamic
** 
*STEP, NLGEOM=NO, INC=9999999, UNSYMM=YES 
*DYNAMIC,DIRECT,NOHAF,INITIAL=NO,IMPACT=NO,ALPHA=0.0,BETA=0.25,GAMMA=0.5
0.001,0.4, 
**  
** FORCING FUNCTION 
*DSLOAD,AMPLITUDE=LOAD_AMP
PresSurf,P,1.e6
** 
**  
** FIELD OUTPUT
** 
*OUTPUT, FIELD, FREQUENCY=10
*NODE OUTPUT
A,U,V
** 
**  
** HISTORY OUTPUT
** 
*OUTPUT, HISTORY, FREQUENCY=1
*NODE OUTPUT, NSET=BotCorner
U,V,A
*NODE OUTPUT, NSET=TopCorner
U,V,A
*End Step 
****